
     RDKit          3D

 31 30  0  0  0  0  0  0  0  0999 V2000
    1.0966    3.6818    1.4955 C   0  0  0  0  0  0  0  0  0  0  0  0
    0.7054    2.5395    0.6076 C   0  0  0  0  0  0  0  0  0  0  0  0
    1.2432    1.3750    1.0555 O   0  0  0  0  0  0  0  0  0  0  0  0
    1.0493    0.2045    0.1984 C   0  0  0  0  0  0  0  0  0  0  0  0
   -0.4101   -0.3237    0.3642 C   0  0  0  0  0  0  0  0  0  0  0  0
   -1.2033   -0.8062   -0.8956 N   0  0  0  0  0  0  0  0  0  0  0  0
   -0.8484   -0.0497   -2.1616 C   0  0  0  0  0  0  0  0  0  0  0  0
   -0.9742   -2.3002   -1.1561 C   0  0  0  0  0  0  0  0  0  0  0  0
   -2.6853   -0.6047   -0.6145 C   0  0  0  0  0  0  0  0  0  0  0  0
    2.1123   -0.7888    0.6634 C   0  0  0  0  0  0  0  0  0  0  0  0
    2.0084   -1.9543   -0.2952 C   0  0  0  0  0  0  0  0  0  0  0  0
    2.2660   -1.6850   -1.4885 O   0  0  0  0  0  0  0  0  0  0  0  0
    1.5285   -3.0122    0.1969 O   0  0  0  0  0  0  0  0  0  0  0  0
   -0.0492    2.6337   -0.3548 O   0  0  0  0  0  0  0  0  0  0  0  0
    2.1180    3.5553    1.8556 H   0  0  0  0  0  0  0  0  0  0  0  0
    1.0566    4.6189    0.9210 H   0  0  0  0  0  0  0  0  0  0  0  0
    0.4007    3.7404    2.3328 H   0  0  0  0  0  0  0  0  0  0  0  0
    1.2677    0.5344   -0.8174 H   0  0  0  0  0  0  0  0  0  0  0  0
   -0.4643   -1.1378    1.0984 H   0  0  0  0  0  0  0  0  0  0  0  0
   -1.0250    0.4840    0.7948 H   0  0  0  0  0  0  0  0  0  0  0  0
   -1.4606   -0.4499   -2.9807 H   0  0  0  0  0  0  0  0  0  0  0  0
    0.1959   -0.2069   -2.4058 H   0  0  0  0  0  0  0  0  0  0  0  0
   -1.0783    1.0044   -2.0145 H   0  0  0  0  0  0  0  0  0  0  0  0
   -0.9828   -2.8398   -0.2067 H   0  0  0  0  0  0  0  0  0  0  0  0
   -0.0499   -2.4312   -1.7184 H   0  0  0  0  0  0  0  0  0  0  0  0
   -1.7948   -2.6711   -1.7838 H   0  0  0  0  0  0  0  0  0  0  0  0
   -3.2536   -0.9508   -1.4896 H   0  0  0  0  0  0  0  0  0  0  0  0
   -2.9634   -1.1814    0.2769 H   0  0  0  0  0  0  0  0  0  0  0  0
   -2.8631    0.4628   -0.4451 H   0  0  0  0  0  0  0  0  0  0  0  0
    3.1141   -0.3449    0.6186 H   0  0  0  0  0  0  0  0  0  0  0  0
    1.9439   -1.0958    1.6969 H   0  0  0  0  0  0  0  0  0  0  0  0
  1  2  1  0
  2  3  1  0
  3  4  1  0
  4  5  1  0
  5  6  1  0
  6  7  1  0
  6  8  1  0
  6  9  1  0
  4 10  1  0
 10 11  1  0
 11 12  1  0
 11 13  2  0
  2 14  2  0
  1 15  1  0
  1 16  1  0
  1 17  1  0
  4 18  1  0
  5 19  1  0
  5 20  1  0
  7 21  1  0
  7 22  1  0
  7 23  1  0
  8 24  1  0
  8 25  1  0
  8 26  1  0
  9 27  1  0
  9 28  1  0
  9 29  1  0
 10 30  1  0
 10 31  1  0
M  CHG  2   6   1  12  -1
M  END
$$$$
