
     RDKit          3D

 11 12  0  0  0  0  0  0  0  0999 V2000
    0.9904   -2.2560    0.3404 C   0  0  0  0  0  0  0  0  0  0  0  0
    1.8166   -1.2698    1.1798 C   0  0  0  0  0  0  0  0  0  0  0  0
    1.6190   -1.4905    2.7084 C   0  0  0  0  0  0  0  0  0  0  0  0
    0.1387   -1.2648    3.0718 C   0  0  0  0  0  0  0  0  0  0  0  0
   -0.3038    0.1022    2.5373 C   0  0  0  0  0  0  0  0  0  0  0  0
    0.9045    0.8372    1.9259 C   0  0  0  0  0  0  0  0  0  0  0  0
    1.3935    0.0609    0.8131 O   0  0  0  0  0  0  0  0  0  0  0  0
    2.0358    0.9639    2.9642 C   0  0  0  0  0  0  0  0  0  0  0  0
    2.4157   -0.4262    3.4873 C   0  0  0  0  0  0  0  0  0  0  0  0
    0.4987    2.2055    1.3884 C   0  0  0  0  0  0  0  0  0  0  0  0
    3.2875   -1.4100    0.7596 C   0  0  0  0  0  0  0  0  0  0  0  0
  1  2  1  0
  2  3  1  0
  3  4  1  0
  4  5  1  0
  5  6  1  0
  6  7  1  0
  6  8  1  0
  8  9  1  0
  6 10  1  0
  2 11  1  0
  7  2  1  0
  9  3  1  0
M  END
