
     RDKit          3D

 10 11  0  0  0  0  0  0  0  0999 V2000
    2.0994    2.0826    3.0651 C   0  0  0  0  0  0  0  0  0  0  0  0
    1.4372    1.2301    1.9670 C   0  0  2  0  0  0  0  0  0  0  0  0
    2.1490    1.4431    0.5892 C   0  0  1  0  0  0  0  0  0  0  0  0
    1.6252    0.4738   -0.4949 C   0  0  0  0  0  0  0  0  0  0  0  0
    0.1854    0.9654   -0.7332 C   0  0  0  0  0  0  0  0  0  0  0  0
    0.0958    2.2130    0.1613 C   0  0  2  0  0  0  0  0  0  0  0  0
    1.5219    2.7546    0.0898 C   0  0  0  0  0  0  0  0  0  0  0  0
    0.0465    1.7470    1.6059 C   0  0  0  0  0  0  0  0  0  0  0  0
   -1.0245    1.8231    2.4055 C   0  0  0  0  0  0  0  0  0  0  0  0
    1.4238   -0.2343    2.4269 C   0  0  0  0  0  0  0  0  0  0  0  0
  2  1  1  1
  2  3  1  0
  3  4  1  6
  4  5  1  0
  6  5  1  6
  6  7  1  0
  6  8  1  0
  8  9  2  3
  2 10  1  0
  8  2  1  0
  7  3  1  0
M  END
