
     RDKit          3D

 10 11  0  0  0  0  0  0  0  0999 V2000
   11.9070   24.6923    1.7275 C   0  0  0  0  0  0  0  0  0  0  0  0
   12.2775   24.1017    3.0458 C   0  0  0  0  0  0  0  0  0  0  0  0
   12.3049   22.7836    3.3298 C   0  0  0  0  0  0  0  0  0  0  0  0
   12.6771   22.2958    4.7158 C   0  0  0  0  0  0  0  0  0  0  0  0
   12.9905   23.5106    5.6156 C   0  0  0  0  0  0  0  0  0  0  0  0
   13.9713   24.4800    4.8757 C   0  0  0  0  0  0  0  0  0  0  0  0
   12.6714   25.0214    4.1751 C   0  0  0  0  0  0  0  0  0  0  0  0
   11.9356   24.7014    5.5534 C   0  0  0  0  0  0  0  0  0  0  0  0
   10.4488   24.3248    5.5081 C   0  0  0  0  0  0  0  0  0  0  0  0
   12.1033   25.7813    6.6410 C   0  0  0  0  0  0  0  0  0  0  0  0
  1  2  1  0
  2  3  2  0
  3  4  1  0
  5  4  1  0
  5  6  1  0
  7  6  1  0
  7  8  1  0
  8  9  1  0
  8 10  1  0
  7  2  1  0
  8  5  1  0
M  END
