
     RDKit          3D

 15 16  0  0  0  0  0  0  0  0999 V2000
   -4.9802   -8.9648   -0.0382 C   0  0  0  0  0  0  0  0  0  0  0  0
   -4.4908   -8.4157   -1.3862 C   0  0  0  0  0  0  0  0  0  0  0  0
   -4.2317   -6.9037   -1.2357 C   0  0  0  0  0  0  0  0  0  0  0  0
   -3.8478   -6.2472   -2.5580 C   0  0  0  0  0  0  0  0  0  0  0  0
   -2.9820   -7.0961   -3.4340 C   0  0  0  0  0  0  0  0  0  0  0  0
   -2.7061   -8.3920   -3.2028 C   0  0  0  0  0  0  0  0  0  0  0  0
   -3.2377   -9.1560   -1.9854 C   0  0  0  0  0  0  0  0  0  0  0  0
   -3.5850  -10.6226   -2.4062 C   0  0  0  0  0  0  0  0  0  0  0  0
   -3.9386  -10.8170   -3.8990 C   0  0  0  0  0  0  0  0  0  0  0  0
   -2.7473  -10.3610   -4.7770 C   0  0  0  0  0  0  0  0  0  0  0  0
   -1.9208   -9.2078   -4.1954 C   0  0  0  0  0  0  0  0  0  0  0  0
   -5.3188  -10.2658   -4.2689 C   0  0  0  0  0  0  0  0  0  0  0  0
   -6.4878  -10.8893   -4.0398 C   0  0  0  0  0  0  0  0  0  0  0  0
   -5.3208   -8.8959   -4.9034 C   0  0  0  0  0  0  0  0  0  0  0  0
   -2.0973   -9.2291   -0.9375 C   0  0  0  0  0  0  0  0  0  0  0  0
  2  1  1  0
  2  3  1  0
  3  4  1  0
  4  5  1  0
  5  6  2  0
  6  7  1  0
  7  8  1  0
  9  8  1  0
  9 10  1  0
 10 11  1  0
  9 12  1  0
 12 13  2  3
 12 14  1  0
  7 15  1  0
  7  2  1  0
 11  6  1  0
M  END
