
     RDKit          3D

 10 11  0  0  0  0  0  0  0  0999 V2000
   -5.0422   -7.6416   -1.9207 C   0  0  0  0  0  0  0  0  0  0  0  0
   -3.7631   -7.8021   -1.0785 C   0  0  0  0  0  0  0  0  0  0  0  0
   -4.0998   -8.3446    0.3507 C   0  0  0  0  0  0  0  0  0  0  0  0
   -2.8640   -8.3511    1.2791 C   0  0  0  0  0  0  0  0  0  0  0  0
   -1.9715   -9.4432    0.6607 C   0  0  0  0  0  0  0  0  0  0  0  0
   -2.8453   -9.9979   -0.4766 C   0  0  0  0  0  0  0  0  0  0  0  0
   -4.2494   -9.8548    0.1068 C   0  0  0  0  0  0  0  0  0  0  0  0
   -2.8932   -8.9534   -1.5780 C   0  0  0  0  0  0  0  0  0  0  0  0
   -2.3025   -9.0651   -2.7742 C   0  0  0  0  0  0  0  0  0  0  0  0
   -3.0176   -6.4605   -1.0620 C   0  0  0  0  0  0  0  0  0  0  0  0
  1  2  1  0
  2  3  1  0
  3  4  1  0
  4  5  1  0
  6  5  1  0
  6  7  1  0
  6  8  1  0
  8  9  2  3
  2 10  1  0
  8  2  1  0
  7  3  1  0
M  END
