
     RDKit          3D

 15 16  0  0  0  0  0  0  0  0999 V2000
   22.7404   11.0468   14.0441 C   0  0  0  0  0  0  0  0  0  0  0  0
   21.3885   11.1804   13.3280 C   0  0  2  0  0  0  0  0  0  0  0  0
   20.4176   11.9365   14.2578 C   0  0  0  0  0  0  0  0  0  0  0  0
   19.0721   12.2170   13.5955 C   0  0  0  0  0  0  0  0  0  0  0  0
   18.6034   11.1345   12.6757 C   0  0  0  0  0  0  0  0  0  0  0  0
   19.3422   10.0691   12.3201 C   0  0  0  0  0  0  0  0  0  0  0  0
   20.7660    9.8228   12.8340 C   0  0  1  0  0  0  0  0  0  0  0  0
   21.6196    9.1980   11.6796 C   0  0  0  0  0  0  0  0  0  0  0  0
   21.1692    9.6661   10.2770 C   0  0  2  0  0  0  0  0  0  0  0  0
   19.7134    9.2136   10.0100 C   0  0  0  0  0  0  0  0  0  0  0  0
   18.8581    9.0987   11.2761 C   0  0  0  0  0  0  0  0  0  0  0  0
   22.0758    9.2519    9.1183 C   0  0  0  0  0  0  0  0  0  0  0  0
   23.3584    8.8710    9.2494 C   0  0  0  0  0  0  0  0  0  0  0  0
   21.4415    9.3103    7.7509 C   0  0  0  0  0  0  0  0  0  0  0  0
   20.6970    8.7891   13.9832 C   0  0  0  0  0  0  0  0  0  0  0  0
  2  1  1  1
  2  3  1  0
  3  4  1  0
  4  5  1  0
  5  6  2  0
  6  7  1  0
  7  8  1  0
  9  8  1  1
  9 10  1  0
 10 11  1  0
  9 12  1  0
 12 13  2  3
 12 14  1  0
  7 15  1  1
  7  2  1  0
 11  6  1  0
M  END
