
     RDKit          3D

 15 16  0  0  0  0  0  0  0  0999 V2000
   10.3800   23.5851    6.8829 C   0  0  0  0  0  0  0  0  0  0  0  0
   11.4651   24.0170    5.8860 C   0  0  0  0  0  0  0  0  0  0  0  0
   11.8216   25.4920    6.1565 C   0  0  0  0  0  0  0  0  0  0  0  0
   12.8148   26.0440    5.1388 C   0  0  0  0  0  0  0  0  0  0  0  0
   13.8589   25.0631    4.7083 C   0  0  0  0  0  0  0  0  0  0  0  0
   13.8441   23.7538    5.0161 C   0  0  0  0  0  0  0  0  0  0  0  0
   12.7503   23.1086    5.8738 C   0  0  0  0  0  0  0  0  0  0  0  0
   12.4366   21.6783    5.3220 C   0  0  0  0  0  0  0  0  0  0  0  0
   12.7367   21.4676    3.8198 C   0  0  0  0  0  0  0  0  0  0  0  0
   14.2363   21.7421    3.5478 C   0  0  0  0  0  0  0  0  0  0  0  0
   14.8704   22.8106    4.4463 C   0  0  0  0  0  0  0  0  0  0  0  0
   11.7299   22.1645    2.8999 C   0  0  0  0  0  0  0  0  0  0  0  0
   10.7100   21.5576    2.2680 C   0  0  0  0  0  0  0  0  0  0  0  0
   11.9126   23.6557    2.7507 C   0  0  0  0  0  0  0  0  0  0  0  0
   13.3115   22.9419    7.3095 C   0  0  0  0  0  0  0  0  0  0  0  0
  2  1  1  0
  2  3  1  0
  3  4  1  0
  4  5  1  0
  5  6  2  0
  6  7  1  0
  7  8  1  0
  9  8  1  0
  9 10  1  0
 10 11  1  0
  9 12  1  0
 12 13  2  3
 12 14  1  0
  7 15  1  0
  7  2  1  0
 11  6  1  0
M  END
