
     RDKit          3D

 11 12  0  0  0  0  0  0  0  0999 V2000
   -0.5849   -8.4278    1.0799 C   0  0  0  0  0  0  0  0  0  0  0  0
   -2.1090   -8.2429    1.0264 C   0  0  0  0  0  0  0  0  0  0  0  0
   -2.8431   -9.5430    0.5848 C   0  0  0  0  0  0  0  0  0  0  0  0
   -4.3557   -9.2681    0.4824 C   0  0  0  0  0  0  0  0  0  0  0  0
   -4.5813   -8.0437   -0.4121 C   0  0  0  0  0  0  0  0  0  0  0  0
   -3.2367   -7.5756   -1.0010 C   0  0  0  0  0  0  0  0  0  0  0  0
   -2.3768   -7.1799    0.0870 O   0  0  0  0  0  0  0  0  0  0  0  0
   -2.5559   -8.7282   -1.7639 C   0  0  0  0  0  0  0  0  0  0  0  0
   -2.3846   -9.9342   -0.8332 C   0  0  0  0  0  0  0  0  0  0  0  0
   -3.4270   -6.3596   -1.9017 C   0  0  0  0  0  0  0  0  0  0  0  0
   -2.5736   -7.7557    2.4073 C   0  0  0  0  0  0  0  0  0  0  0  0
  1  2  1  0
  2  3  1  0
  3  4  1  0
  4  5  1  0
  5  6  1  0
  6  7  1  0
  6  8  1  0
  8  9  1  0
  6 10  1  0
  2 11  1  0
  7  2  1  0
  9  3  1  0
M  END
