
     RDKit          3D

 11 12  0  0  0  0  0  0  0  0999 V2000
   11.9206   23.9528    7.1355 C   0  0  0  0  0  0  0  0  0  0  0  0
   12.8349   24.1354    5.9146 C   0  0  0  0  0  0  0  0  0  0  0  0
   14.3431   24.0987    6.2997 C   0  0  0  0  0  0  0  0  0  0  0  0
   15.2007   24.2143    5.0248 C   0  0  0  0  0  0  0  0  0  0  0  0
   14.7476   23.1489    4.0199 C   0  0  0  0  0  0  0  0  0  0  0  0
   13.6755   22.2492    4.6643 C   0  0  0  0  0  0  0  0  0  0  0  0
   12.5334   23.0663    4.9924 O   0  0  0  0  0  0  0  0  0  0  0  0
   14.2138   21.6220    5.9646 C   0  0  0  0  0  0  0  0  0  0  0  0
   14.6812   22.7282    6.9174 C   0  0  0  0  0  0  0  0  0  0  0  0
   13.2061   21.1732    3.6907 C   0  0  0  0  0  0  0  0  0  0  0  0
   12.4446   25.4520    5.2260 C   0  0  0  0  0  0  0  0  0  0  0  0
  1  2  1  0
  2  3  1  0
  3  4  1  0
  4  5  1  0
  5  6  1  0
  6  7  1  0
  6  8  1  0
  8  9  1  0
  6 10  1  0
  2 11  1  0
  7  2  1  0
  9  3  1  0
M  END
