
     RDKit          3D

 39 40  0  0  0  0  0  0  0  0999 V2000
   -2.0240    2.2728   -0.9832 C   0  0  0  0  0  0  0  0  0  0  0  0
   -1.9491    0.9530   -0.1906 C   0  0  0  0  0  0  0  0  0  0  0  0
   -3.2823    0.1972   -0.3147 C   0  0  0  0  0  0  0  0  0  0  0  0
   -3.2949   -1.0179    0.6072 C   0  0  0  0  0  0  0  0  0  0  0  0
   -2.0318   -1.8297    0.5230 C   0  0  0  0  0  0  0  0  0  0  0  0
   -0.8442   -1.3350    0.1065 C   0  0  0  0  0  0  0  0  0  0  0  0
   -0.7217    0.0425   -0.5732 C   0  0  0  0  0  0  0  0  0  0  0  0
    0.6097    0.7695   -0.1431 C   0  0  0  0  0  0  0  0  0  0  0  0
    1.6537   -0.1194    0.5744 C   0  0  0  0  0  0  0  0  0  0  0  0
    1.6932   -1.5300   -0.0255 C   0  0  0  0  0  0  0  0  0  0  0  0
    0.3631   -2.2502    0.2163 C   0  0  0  0  0  0  0  0  0  0  0  0
    3.0339    0.5271    0.5747 C   0  0  0  0  0  0  0  0  0  0  0  0
    3.7141    0.7181   -0.5689 C   0  0  0  0  0  0  0  0  0  0  0  0
    3.6669    0.9609    1.8716 C   0  0  0  0  0  0  0  0  0  0  0  0
   -0.6878   -0.2170   -2.1054 C   0  0  0  0  0  0  0  0  0  0  0  0
   -2.3306    2.0929   -2.0350 H   0  0  0  0  0  0  0  0  0  0  0  0
   -1.0495    2.8027   -0.9761 H   0  0  0  0  0  0  0  0  0  0  0  0
   -2.7771    2.9455   -0.5200 H   0  0  0  0  0  0  0  0  0  0  0  0
   -1.8443    1.2342    0.8829 H   0  0  0  0  0  0  0  0  0  0  0  0
   -4.1230    0.8652   -0.0239 H   0  0  0  0  0  0  0  0  0  0  0  0
   -3.4666   -0.1220   -1.3616 H   0  0  0  0  0  0  0  0  0  0  0  0
   -4.1614   -1.6635    0.3495 H   0  0  0  0  0  0  0  0  0  0  0  0
   -3.4218   -0.6802    1.6584 H   0  0  0  0  0  0  0  0  0  0  0  0
   -2.0686   -2.8269    0.9546 H   0  0  0  0  0  0  0  0  0  0  0  0
    1.0716    1.2529   -1.0315 H   0  0  0  0  0  0  0  0  0  0  0  0
    0.3946    1.6106    0.5522 H   0  0  0  0  0  0  0  0  0  0  0  0
    1.3165   -0.2280    1.6302 H   0  0  0  0  0  0  0  0  0  0  0  0
    1.9137   -1.4883   -1.1121 H   0  0  0  0  0  0  0  0  0  0  0  0
    2.5083   -2.1184    0.4509 H   0  0  0  0  0  0  0  0  0  0  0  0
    0.3910   -2.6798    1.2427 H   0  0  0  0  0  0  0  0  0  0  0  0
    0.2602   -3.0919   -0.5022 H   0  0  0  0  0  0  0  0  0  0  0  0
    3.3006    0.4221   -1.5275 H   0  0  0  0  0  0  0  0  0  0  0  0
    4.6983    1.1773   -0.5596 H   0  0  0  0  0  0  0  0  0  0  0  0
    3.0073    0.7579    2.7405 H   0  0  0  0  0  0  0  0  0  0  0  0
    4.6216    0.4144    2.0241 H   0  0  0  0  0  0  0  0  0  0  0  0
    3.8736    2.0518    1.8414 H   0  0  0  0  0  0  0  0  0  0  0  0
   -1.6066   -0.7308   -2.4534 H   0  0  0  0  0  0  0  0  0  0  0  0
   -0.5718    0.7262   -2.6780 H   0  0  0  0  0  0  0  0  0  0  0  0
    0.1652   -0.8657   -2.3853 H   0  0  0  0  0  0  0  0  0  0  0  0
  1  2  1  0
  2  3  1  0
  3  4  1  0
  4  5  1  0
  5  6  2  0
  6  7  1  0
  7  8  1  0
  8  9  1  0
  9 10  1  0
 10 11  1  0
  9 12  1  0
 12 13  2  3
 12 14  1  0
  7 15  1  0
  7  2  1  0
 11  6  1  0
  1 16  1  0
  1 17  1  0
  1 18  1  0
  2 19  1  0
  3 20  1  0
  3 21  1  0
  4 22  1  0
  4 23  1  0
  5 24  1  0
  8 25  1  0
  8 26  1  0
  9 27  1  0
 10 28  1  0
 10 29  1  0
 11 30  1  0
 11 31  1  0
 13 32  1  0
 13 33  1  0
 14 34  1  0
 14 35  1  0
 14 36  1  0
 15 37  1  0
 15 38  1  0
 15 39  1  0
M  END
$$$$
